community_sim/network_model/Loads.dss
New Load.1 bus1=Bus1.1.2 kV=0.20784609690826525 model=1 kW=1.1913949962932369 kvar=0.27332475740432793 Phases=2

New Load.2 bus1=Bus2.1.2 kV=0.20784609690826525 model=1 kW=5.82273935876167 kvar=1.335828023127312 Phases=2

New Load.3 bus1=Bus3.1.2 kV=0.20784609690826525 model=1 kW=5.427985288083699 kvar=1.2452652283043337 Phases=2

New Load.4 bus1=Bus4.1.2 kV=0.20784609690826525 model=1 kW=5.017182922969085 kvar=1.151020702235802 Phases=2

New Load.5 bus1=Bus5.1.2 kV=0.20784609690826525 model=1 kW=3.7909022131521817 kvar=0.869692613261844 Phases=2

New Load.6 bus1=Bus6.1.2 kV=0.20784609690826525 model=1 kW=1.147232319081144 kvar=0.26319314440202696 Phases=2

New Load.7 bus1=Bus7.1.2 kV=0.20784609690826525 model=1 kW=1.0330703460136779 kvar=0.23700259157064296 Phases=2

New Load.8 bus1=Bus8.1.2 kV=0.20784609690826525 model=1 kW=1.0330703460136779 kvar=0.23700259157064296 Phases=2

New Load.9 bus1=Bus9.1.2 kV=0.20784609690826525 model=1 kW=4.035712063603525 kvar=0.9258558447618815 Phases=2

New Load.10 bus1=Bus10.1.2 kV=0.20784609690826525 model=1 kW=4.271485654148399 kvar=0.979946016064031 Phases=2

New Load.11 bus1=Bus11.1.2 kV=0.20784609690826525 model=1 kW=0.8383923467590492 kvar=0.19234039550318965 Phases=2

New Load.12 bus1=Bus12.1.2 kV=0.20784609690826525 model=1 kW=4.393676579753821 kvar=1.007978536934122 Phases=2

New Load.13 bus1=Bus13.1.2 kV=0.20784609690826525 model=1 kW=0.9560009077456687 kvar=0.21932164983139565 Phases=2

New Load.14 bus1=Bus14.1.2 kV=0.20784609690826525 model=1 kW=1.0321947346132192 kvar=0.2368017125386213 Phases=2

New Load.15 bus1=Bus15.1.2 kV=0.20784609690826525 model=1 kW=3.9563153983225563 kvar=0.9076410005295726 Phases=2

New Load.16 bus1=Bus16.1.2 kV=0.20784609690826525 model=1 kW=1.180907738810081 kvar=0.2709188155325403 Phases=2

New Load.17 bus1=Bus17.1.2 kV=0.20784609690826525 model=1 kW=4.888837574165456 kvar=1.1215762598511445 Phases=2

New Load.18 bus1=Bus18.1.2 kV=0.20784609690826525 model=1 kW=1.257391742024817 kvar=0.2884654492594073 Phases=2

New Load.19 bus1=Bus19.1.2 kV=0.20784609690826525 model=1 kW=1.054977082392057 kvar=0.24202834157359768 Phases=2

New Load.20 bus1=Bus20.1.2 kV=0.20784609690826525 model=1 kW=0.9560009077456687 kvar=0.21932164983139565 Phases=2

New Load.21 bus1=Bus21.1.2 kV=0.20784609690826525 model=1 kW=1.1056494392027738 kvar=0.25365337749827926 Phases=2

New Load.22 bus1=Bus22.1.2 kV=0.20784609690826525 model=1 kW=4.794561684840997 kvar=1.099947887515474 Phases=2

New Load.23 bus1=Bus23.1.2 kV=0.20784609690826525 model=1 kW=1.2262847134158363 kvar=0.2813290074625454 Phases=2

New Load.24 bus1=Bus24.1.2 kV=0.20784609690826525 model=1 kW=4.628558070583254 kvar=1.061864046525368 Phases=2

New Load.25 bus1=Bus25.1.2 kV=0.20784609690826525 model=1 kW=4.438111482765686 kvar=1.0181726028180564 Phases=2

New Load.26 bus1=Bus26.1.2 kV=0.20784609690826525 model=1 kW=4.555875449104902 kvar=1.0451895095792756 Phases=2

New Load.27 bus1=Bus27.1.2 kV=0.20784609690826525 model=1 kW=3.8113872005592206 kvar=0.874392191681159 Phases=2

New Load.28 bus1=Bus28.1.2 kV=0.20784609690826525 model=1 kW=5.054468404025476 kvar=1.159574578235071 Phases=2

